<?xml version="1.0" encoding="UTF-8"?>
<routes>
    <vType id="car" accel="2.6" decel="4.5" sigma="0.5" length="5" minGap="2.5" maxSpeed="55.55" guiShape="passenger"/>

    <route id="route_eastbound" edges="w_to_tl1 tl1_to_tl2 tl2_to_e"/>
    
    <route id="route_westbound" edges="e_to_tl2 tl2_to_tl1 tl1_to_w"/>

    <vehicle id="car_0" type="car" route="route_eastbound" depart="0"/>
    <vehicle id="car_1" type="car" route="route_westbound" depart="2"/>
    <vehicle id="car_2" type="car" route="route_eastbound" depart="5"/>
</routes>