<?xml version="1.0" encoding="UTF-8"?>

<!-- generated on 2026-01-06 16:04:37 by Eclipse SUMO netconvert Version 1.24.0
<netconvertConfiguration xmlns:xsi="http://www.w3.org/2001/XMLSchema-instance" xsi:noNamespaceSchemaLocation="http://sumo.dlr.de/xsd/netconvertConfiguration.xsd">

    <input>
        <node-files value="simple.nod.xml"/>
        <edge-files value="simple.edg.xml"/>
    </input>

    <output>
        <output-file value="demoNetwork2.net.xml"/>
    </output>

</netconvertConfiguration>
-->

<net version="1.20" junctionCornerDetail="5" limitTurnSpeed="5.50" xmlns:xsi="http://www.w3.org/2001/XMLSchema-instance" xsi:noNamespaceSchemaLocation="http://sumo.dlr.de/xsd/net_file.xsd">

    <location netOffset="100.00,0.00" convBoundary="0.00,0.00,400.00,0.00" origBoundary="-100.00,0.00,300.00,0.00" projParameter="!"/>

    <edge id=":E_0" function="internal">
        <lane id=":E_0_0" index="0" speed="3.65" length="4.67" shape="400.00,-1.60 401.20,-0.80 401.60,0.00 401.20,0.80 400.00,1.60"/>
    </edge>
    <edge id=":TL1_0" function="internal">
        <lane id=":TL1_0_0" index="0" speed="13.89" length="0.10" shape="100.00,1.60 100.00,1.60"/>
    </edge>
    <edge id=":TL1_1" function="internal">
        <lane id=":TL1_1_0" index="0" speed="13.89" length="0.10" shape="100.00,-1.60 100.00,-1.60"/>
    </edge>
    <edge id=":TL2_0" function="internal">
        <lane id=":TL2_0_0" index="0" speed="13.89" length="0.10" shape="300.00,1.60 300.00,1.60"/>
    </edge>
    <edge id=":TL2_1" function="internal">
        <lane id=":TL2_1_0" index="0" speed="13.89" length="0.10" shape="300.00,-1.60 300.00,-1.60"/>
    </edge>
    <edge id=":W_0" function="internal">
        <lane id=":W_0_0" index="0" speed="3.65" length="4.67" shape="0.00,1.60 -1.20,0.80 -1.60,0.00 -1.20,-0.80 0.00,-1.60"/>
    </edge>

    <edge id="e_to_tl2" from="E" to="TL2" priority="-1">
        <lane id="e_to_tl2_0" index="0" speed="13.89" length="100.00" shape="400.00,1.60 300.00,1.60"/>
    </edge>
    <edge id="tl1_to_tl2" from="TL1" to="TL2" priority="-1">
        <lane id="tl1_to_tl2_0" index="0" speed="13.89" length="200.00" shape="100.00,-1.60 300.00,-1.60"/>
    </edge>
    <edge id="tl1_to_w" from="TL1" to="W" priority="-1">
        <lane id="tl1_to_w_0" index="0" speed="13.89" length="100.00" shape="100.00,1.60 0.00,1.60"/>
    </edge>
    <edge id="tl2_to_e" from="TL2" to="E" priority="-1">
        <lane id="tl2_to_e_0" index="0" speed="13.89" length="100.00" shape="300.00,-1.60 400.00,-1.60"/>
    </edge>
    <edge id="tl2_to_tl1" from="TL2" to="TL1" priority="-1">
        <lane id="tl2_to_tl1_0" index="0" speed="13.89" length="200.00" shape="300.00,1.60 100.00,1.60"/>
    </edge>
    <edge id="w_to_tl1" from="W" to="TL1" priority="-1">
        <lane id="w_to_tl1_0" index="0" speed="13.89" length="100.00" shape="0.00,-1.60 100.00,-1.60"/>
    </edge>

    <tlLogic id="TL1" type="static" programID="0" offset="0">
        <phase duration="82" state="GG"/>
        <phase duration="3"  state="yy"/>
        <phase duration="5"  state="rr"/>
    </tlLogic>
    <tlLogic id="TL2" type="static" programID="0" offset="0">
        <phase duration="82" state="GG"/>
        <phase duration="3"  state="yy"/>
        <phase duration="5"  state="rr"/>
    </tlLogic>

    <junction id="E" type="priority" x="400.00" y="0.00" incLanes="tl2_to_e_0" intLanes=":E_0_0" shape="400.00,0.00 400.00,-3.20 400.00,0.00">
        <request index="0" response="0" foes="0" cont="0"/>
    </junction>
    <junction id="TL1" type="traffic_light" x="100.00" y="0.00" incLanes="tl2_to_tl1_0 w_to_tl1_0" intLanes=":TL1_0_0 :TL1_1_0" shape="100.00,3.20 100.00,-3.20 100.00,3.20">
        <request index="0" response="00" foes="00" cont="0"/>
        <request index="1" response="00" foes="00" cont="0"/>
    </junction>
    <junction id="TL2" type="traffic_light" x="300.00" y="0.00" incLanes="e_to_tl2_0 tl1_to_tl2_0" intLanes=":TL2_0_0 :TL2_1_0" shape="300.00,3.20 300.00,-3.20 300.00,3.20">
        <request index="0" response="00" foes="00" cont="0"/>
        <request index="1" response="00" foes="00" cont="0"/>
    </junction>
    <junction id="W" type="priority" x="0.00" y="0.00" incLanes="tl1_to_w_0" intLanes=":W_0_0" shape="0.00,0.00 0.00,3.20 0.00,0.00">
        <request index="0" response="0" foes="0" cont="0"/>
    </junction>

    <connection from="e_to_tl2" to="tl2_to_tl1" fromLane="0" toLane="0" via=":TL2_0_0" tl="TL2" linkIndex="0" dir="s" state="O"/>
    <connection from="tl1_to_tl2" to="tl2_to_e" fromLane="0" toLane="0" via=":TL2_1_0" tl="TL2" linkIndex="1" dir="s" state="O"/>
    <connection from="tl1_to_w" to="w_to_tl1" fromLane="0" toLane="0" via=":W_0_0" dir="t" state="M"/>
    <connection from="tl2_to_e" to="e_to_tl2" fromLane="0" toLane="0" via=":E_0_0" dir="t" state="M"/>
    <connection from="tl2_to_tl1" to="tl1_to_w" fromLane="0" toLane="0" via=":TL1_0_0" tl="TL1" linkIndex="0" dir="s" state="O"/>
    <connection from="w_to_tl1" to="tl1_to_tl2" fromLane="0" toLane="0" via=":TL1_1_0" tl="TL1" linkIndex="1" dir="s" state="O"/>

    <connection from=":E_0" to="e_to_tl2" fromLane="0" toLane="0" dir="t" state="M"/>
    <connection from=":TL1_0" to="tl1_to_w" fromLane="0" toLane="0" dir="s" state="M"/>
    <connection from=":TL1_1" to="tl1_to_tl2" fromLane="0" toLane="0" dir="s" state="M"/>
    <connection from=":TL2_0" to="tl2_to_tl1" fromLane="0" toLane="0" dir="s" state="M"/>
    <connection from=":TL2_1" to="tl2_to_e" fromLane="0" toLane="0" dir="s" state="M"/>
    <connection from=":W_0" to="w_to_tl1" fromLane="0" toLane="0" dir="t" state="M"/>

</net>
