<?xml version="1.0" encoding="UTF-8"?>
<routes xmlns:xsi="http://www.w3.org/2001/XMLSchema-instance"
        xsi:noNamespaceSchemaLocation="http://sumo.dlr.de/xsd/routes_file.xsd">

    <vType id="car" accel="2.0" decel="4.5" length="5.0"
           maxSpeed="13.9" sigma="0.5" color="1,1,0"/>

    <route id="N2S" edges="N2C C2S"/>
    <route id="S2N" edges="S2C C2N"/>
    <route id="E2W" edges="E2C C2W"/>
    <route id="W2E" edges="W2C C2E"/>


    <flow id="flow_NS" type="car" route="N2S"
          begin="0" end="3600" vehsPerHour="600"
          departLane="best" departSpeed="max"/>

    <flow id="flow_SN" type="car" route="S2N"
          begin="0" end="3600" vehsPerHour="600"
          departLane="best" departSpeed="max"/>

    <flow id="flow_EW" type="car" route="E2W"
          begin="0" end="3600" vehsPerHour="600"
          departLane="best" departSpeed="max"/>

    <flow id="flow_WE" type="car" route="W2E"
          begin="0" end="3600" vehsPerHour="600"
          departLane="best" departSpeed="max"/>

</routes>
