<?xml version="1.0" encoding="UTF-8"?>
<nodes>
    <node id="W"   x="-100" y="0" />
    <node id="TL1" x="0"    y="0" type="traffic_light" />
    <node id="TL2" x="200"  y="0" type="traffic_light" />
    <node id="E"   x="300"  y="0" />
</nodes>