<?xml version="1.0" encoding="UTF-8"?>
<edges>
    <edge id="w_to_tl1" from="W"   to="TL1" />
    <edge id="tl1_to_w" from="TL1" to="W" />

    <edge id="tl1_to_tl2" from="TL1" to="TL2" />
    <edge id="tl2_to_tl1" from="TL2" to="TL1" />

    <edge id="tl2_to_e" from="TL2" to="E" />
    <edge id="e_to_tl2" from="E"   to="TL2" />
</edges>